
.param vthn= 0.63933       $ 7
.param vthp= -0.60157



.model wtf mosra level=1
+tit0 = 1e-6 titfd = 7.5e-10 tittd = 1.45e-20
+tn = 0.25

.appendmodel wtf mosra pmos pmos
          
.mosra reltotaltime='1*90*24*60*60'  lin=91 simmode=2   $'10*365*24*60*60'     $注意这里 第一次跑仿真要用 simmode=0 来获得‘monte 20 sff vth2222222222.radeg0’这个文件

.Measure Tran tdelay1 Trig v(c) Val = 'v(vdd)/2' td=25n rise = 2     *c信号的第一个下降沿开始     
+                     Targ v(q2) Val = 'v(vdd)/2' td=55n fall = 1       *到Clock的上升沿         
   




.Measure Tran ttt param =tdelay1 
.tran 1n 80n  



.subckt inv in out
m2 out in 0 0 nmos l=45n      w=180n
m1 vdd in out vdd pmos l=45n  w=360n
.ends

.subckt transfer in out nc c
m2 out nc in vdd  pmos l=45n  w=180n
m1 in c out 0 nmos l=45n      w=360n          
.ends

.subckt sff  a b  SEL c  q 
mm1 a1 SEL vdd vdd pmos l=45n w=180n
mm2 a1 SEL gnd gnd nmos l=45n w=360n    $jia0   180 360 
Xi011  b out a1 SEL transfer 
Xi012  a out SEL a1 transfer      $mux
xi1 n1 n2 inv 
xi2 n2 n3  n4 c transfer
xi3 n3 n1 inv
xi4 c n4 inv
xi5 q n5 inv
xi6 nq q inv
xi7 n5 nq c n4  transfer
xi8 out n3 c n4  transfer
xi9 n1 nq  n4 c transfer
.ends


xsff1  a  a    SEL c  q1 sff        
xsff2  q1 q1   SEL c  q2 sff     
xsff3  q2 q2   SEL c  q3 sff        
 
.global vdd 
vin a 0 pulse 1.0v 0v  30n 1n 1n 20n 40n
vdd  vdd 0 1v
vc c 0 pulse 0v 1.0v   20n 1n 1n 10n 20n








* PTM Low Power 45nm Metal Gate / High-K / Strained-Si
* nominal Vdd = 1.1V

.model  nmos  nmos  level = 54



+version = 4.0             binunit = 1               paramchk= 1               mobmod  = 0             
+capmod  = 2               igcmod  = 1               igbmod  = 1               geomod  = 1             
+diomod  = 1               rdsmod  = 0               rbodymod= 1               rgatemod= 1             
+permod  = 1               acnqsmod= 0               trnqsmod= 0             

+tnom    = 27              toxe    = 1.8e-009        toxp    = 1.5e-009        toxm    = 1.8e-009      
+dtox    = 3e-010          epsrox  = 3.9             wint    = 5e-009          lint    = 0             
+ll      = 0               wl      = 0               lln     = 1               wln     = 1             
+lw      = 0               ww      = 0               lwn     = 1               wwn     = 1             
+lwl     = 0               wwl     = 0               xpart   = 0               toxref  = 1.8e-009      

+vth0    = vthn          k1      = 0.4             k2      = 0               k3      = 0             
+k3b     = 0               w0      = 2.5e-006        dvt0    = 1               dvt1    = 2             
+dvt2    = 0               dvt0w   = 0               dvt1w   = 0               dvt2w   = 0             
+dsub    = 0.1             minv    = 0.05            voffl   = 0               dvtp0   = 1e-010        
+dvtp1   = 0.1             lpe0    = 0               lpeb    = 0               xj      = 1.4e-008      
+ngate   = 1e+023          ndep    = 3.24e+018       nsd     = 2e+020          phin    = 0             
+cdsc    = 0               cdscb   = 0               cdscd   = 0               cit     = 0             
+voff    = -0.13           nfactor = 1.6             eta0    = 0.0125          etab    = 0             
+vfb     = -0.55           u0      = 0.049           ua      = 6e-010          ub      = 1.2e-018      
+uc      = 0               vsat    = 130000          a0      = 1               ags     = 0             
+a1      = 0               a2      = 1               b0      = 0               b1      = 0             
+keta    = 0.04            dwg     = 0               dwb     = 0               pclm    = 0.02          
+pdiblc1 = 0.001           pdiblc2 = 0.001           pdiblcb = -0.005          drout   = 0.5           
+pvag    = 1e-020          delta   = 0.01            pscbe1  = 8.14e+008       pscbe2  = 1e-007        
+fprout  = 0.2             pdits   = 0.08            pditsd  = 0.23            pditsl  = 2300000       
+rsh     = 5               rdsw    = 210             rsw     = 80              rdw     = 80            
+rdswmin = 0               rdwmin  = 0               rswmin  = 0               prwg    = 0             
+prwb    = 0               wr      = 1               alpha0  = 0.074           alpha1  = 0.005         
+beta0   = 30              agidl   = 0.0002          bgidl   = 2.1e+009        cgidl   = 0.0002        
+egidl   = 0.8             aigbacc = 0.012           bigbacc = 0.0028          cigbacc = 0.002         
+nigbacc = 1               aigbinv = 0.014           bigbinv = 0.004           cigbinv = 0.004         
+eigbinv = 1.1             nigbinv = 3               aigc    = 0.015211        bigc    = 0.0027432     
+cigc    = 0.002           aigsd   = 0.015211        bigsd   = 0.0027432       cigsd   = 0.002         
+nigc    = 1               poxedge = 1               pigcd   = 1               ntox    = 1             
+xrcrg1  = 12              xrcrg2  = 5             

+cgso    = 1.1e-010        cgdo    = 1.1e-010        cgbo    = 2.56e-011       cgdl    = 2.653e-010    
+cgsl    = 2.653e-010      ckappas = 0.03            ckappad = 0.03            acde    = 2   $ 1 before              
+moin    = 15              noff    = 0.9             voffcv  = 0.02          

+kt1     = -0.11           kt1l    = 0               kt2     = 0.022           ute     = -1.5          
+ua1     = 4.31e-009       ub1     = 7.61e-018       uc1     = -5.6e-011       prt     = 0             
+at      = 33000         

+fnoimod = 1               tnoimod = 0             

+jss     = 0.0001          jsws    = 1e-011          jswgs   = 1e-010          njs     = 1             
+ijthsfwd= 0.01            ijthsrev= 0.001           bvs     = 10              xjbvs   = 1             
+jsd     = 0.0001          jswd    = 1e-011          jswgd   = 1e-010          njd     = 1             
+ijthdfwd= 0.01            ijthdrev= 0.001           bvd     = 10              xjbvd   = 1             
+pbs     = 1               cjs     = 0.0005          mjs     = 0.5             pbsws   = 1             
+cjsws   = 5e-010          mjsws   = 0.33            pbswgs  = 1               cjswgs  = 3e-010        
+mjswgs  = 0.33            pbd     = 1               cjd     = 0.0005          mjd     = 0.5           
+pbswd   = 1               cjswd   = 5e-010          mjswd   = 0.33            pbswgd  = 1             
+cjswgd  = 5e-010          mjswgd  = 0.33            tpb     = 0.005           tcj     = 0.001         
+tpbsw   = 0.005           tcjsw   = 0.001           tpbswg  = 0.005           tcjswg  = 0.001         
+xtis    = 3               xtid    = 3             

+dmcg    = 0               dmci    = 0               dmdg    = 0               dmcgt   = 0             
+dwj     = 0               xgw     = 0               xgl     = 0             

+rshg    = 0.4             gbmin   = 1e-010          rbpb    = 5               rbpd    = 15            
+rbps    = 15              rbdb    = 15              rbsb    = 15              ngcon   = 1             


.model  pmos  pmos  level = 54


+version = 4.0             binunit = 1               paramchk= 1               mobmod  = 0             
+capmod  = 2               igcmod  = 1               igbmod  = 1               geomod  = 1             
+diomod  = 1               rdsmod  = 0               rbodymod= 1               rgatemod= 1             
+permod  = 1               acnqsmod= 0               trnqsmod= 0             

+tnom    = 27              toxe    = 1.82e-009       toxp    = 1.5e-009        toxm    = 1.82e-009     
+dtox    = 3.2e-010        epsrox  = 3.9             wint    = 5e-009          lint    = 0             
+ll      = 0               wl      = 0               lln     = 1               wln     = 1             
+lw      = 0               ww      = 0               lwn     = 1               wwn     = 1             
+lwl     = 0               wwl     = 0               xpart   = 0               toxref  = 1.82e-009     

+vth0    = vthp          k1      = 0.4             k2      = -0.01           k3      = 0             
+k3b     = 0               w0      = 2.5e-006        dvt0    = 1               dvt1    = 2             
+dvt2    = -0.032          dvt0w   = 0               dvt1w   = 0               dvt2w   = 0             
+dsub    = 0.1             minv    = 0.05            voffl   = 0               dvtp0   = 1e-011        
+dvtp1   = 0.05            lpe0    = 0               lpeb    = 0               xj      = 1.4e-008      
+ngate   = 1e+023          ndep    = 2.44e+018       nsd     = 2e+020          phin    = 0             
+cdsc    = 0               cdscb   = 0               cdscd   = 0               cit     = 0             
+voff    = -0.126          nfactor = 1.8             eta0    = 0.0125          etab    = 0             
+vfb     = 0.55            u0      = 0.021           ua      = 2e-009          ub      = 5e-019        
+uc      = 0               vsat    = 90000           a0      = 1               ags     = 1e-020        
+a1      = 0               a2      = 1               b0      = 0               b1      = 0             
+keta    = -0.047          dwg     = 0               dwb     = 0               pclm    = 0.12          
+pdiblc1 = 0.001           pdiblc2 = 0.001           pdiblcb = 3.4e-008        drout   = 0.56          
+pvag    = 1e-020          delta   = 0.01            pscbe1  = 8.14e+008       pscbe2  = 9.58e-007     
+fprout  = 0.2             pdits   = 0.08            pditsd  = 0.23            pditsl  = 2300000       
+rsh     = 5               rdsw    = 250             rsw     = 75              rdw     = 75            
+rdswmin = 0               rdwmin  = 0               rswmin  = 0               prwg    = 0             
+prwb    = 0               wr      = 1               alpha0  = 0.074           alpha1  = 0.005         
+beta0   = 30              agidl   = 0.0002          bgidl   = 2.1e+009        cgidl   = 0.0002        
+egidl   = 0.8             aigbacc = 0.012           bigbacc = 0.0028          cigbacc = 0.002         
+nigbacc = 1               aigbinv = 0.014           bigbinv = 0.004           cigbinv = 0.004         
+eigbinv = 1.1             nigbinv = 3               aigc    = 0.0097          bigc    = 0.00125       
+cigc    = 0.0008          aigsd   = 0.0097          bigsd   = 0.00125         cigsd   = 0.0008        
+nigc    = 1               poxedge = 1               pigcd   = 1               ntox    = 1             
+xrcrg1  = 12              xrcrg2  = 5             

+cgso    = 1.1e-010        cgdo    = 1.1e-010        cgbo    = 2.56e-011       cgdl    = 2.653e-010    
+cgsl    = 2.653e-010      ckappas = 0.03            ckappad = 0.03            acde    = 2 $  1 before           
+moin    = 15              noff    = 0.9             voffcv  = 0.02          

+kt1     = -0.11           kt1l    = 0               kt2     = 0.022           ute     = -1.5          
+ua1     = 4.31e-009       ub1     = 7.61e-018       uc1     = -5.6e-011       prt     = 0             
+at      = 33000         

+fnoimod = 1               tnoimod = 0             

+jss     = 0.0001          jsws    = 1e-011          jswgs   = 1e-010          njs     = 1             
+ijthsfwd= 0.01            ijthsrev= 0.001           bvs     = 10              xjbvs   = 1             
+jsd     = 0.0001          jswd    = 1e-011          jswgd   = 1e-010          njd     = 1             
+ijthdfwd= 0.01            ijthdrev= 0.001           bvd     = 10              xjbvd   = 1             
+pbs     = 1               cjs     = 0.0005          mjs     = 0.5             pbsws   = 1             
+cjsws   = 5e-010          mjsws   = 0.33            pbswgs  = 1               cjswgs  = 3e-010        
+mjswgs  = 0.33            pbd     = 1               cjd     = 0.0005          mjd     = 0.5           
+pbswd   = 1               cjswd   = 5e-010          mjswd   = 0.33            pbswgd  = 1             
+cjswgd  = 5e-010          mjswgd  = 0.33            tpb     = 0.005           tcj     = 0.001         
+tpbsw   = 0.005           tcjsw   = 0.001           tpbswg  = 0.005           tcjswg  = 0.001         
+xtis    = 3               xtid    = 3             

+dmcg    = 0               dmci    = 0               dmdg    = 0               dmcgt   = 0             
+dwj     = 0               xgw     = 0               xgl     = 0             

+rshg    = 0.4             gbmin   = 1e-010          rbpb    = 5               rbpd    = 15            
+rbps    = 15              rbdb    = 15              rbsb    = 15              ngcon   = 1             






* ------------41_60-------------------

.alter
.param vthn= 0.62764       $ 1
.param vthp= -0.59549

.alter
.param vthn= 0.60237       $ 2
.param vthp= -0.58317

.alter
.param vthn= 0.63837       $ 3
.param vthp= -0.59546

.alter
.param vthn= 0.63012       $ 4
.param vthp= -0.58149

.alter
.param vthn= 0.60447       $ 5
.param vthp= -0.58417

.alter
.param vthn= 0.61435       $ 6
.param vthp= -0.60425

.alter
.param vthn= 0.62908       $ 7
.param vthp= -0.59594

.alter
.param vthn= 0.64294       $ 8
.param vthp= -0.58679

.alter
.param vthn= 0.62079       $ 9
.param vthp= -0.58515

.alter
.param vthn= 0.63344       $ 10
.param vthp= -0.59007

.alter
.param vthn= 0.65410       $ 11
.param vthp= -0.58956

.alter
.param vthn= 0.61449       $ 12
.param vthp= -0.59419

.alter
.param vthn= 0.61625       $ 13
.param vthp= -0.57612

.alter
.param vthn= 0.60565       $ 14
.param vthp= -0.58507

.alter
.param vthn= 0.60775       $ 15
.param vthp= -0.58577

.alter
.param vthn= 0.64714       $ 16
.param vthp= -0.58972

.alter
.param vthn= 0.64594       $ 17
.param vthp= -0.59653

.alter
.param vthn= 0.63841       $ 18
.param vthp= -0.60065

.alter
.param vthn= 0.63061       $ 19
.param vthp= -0.59241

.alter
.param vthn= 0.63183       $ 20
.param vthp= -0.58756

.alter
.param vthn= 0.60647       $ 21
.param vthp= -0.58120

.alter
.param vthn= 0.61339       $ 22
.param vthp= -0.58348

.alter
.param vthn= 0.62322       $ 23
.param vthp= -0.58966

.alter
.param vthn= 0.63016       $ 24
.param vthp= -0.58640

.alter
.param vthn= 0.59964       $ 25
.param vthp= -0.58968

.alter
.param vthn= 0.62849       $ 26
.param vthp= -0.57476

.alter
.param vthn= 0.62989       $ 27
.param vthp= -0.58853

.alter
.param vthn= 0.61792       $ 28
.param vthp= -0.58642

.alter
.param vthn= 0.61509       $ 29
.param vthp= -0.57978

.alter
.param vthn= 0.62090       $ 30
.param vthp= -0.59030

.alter
.param vthn= 0.62573       $ 31
.param vthp= -0.58836

.alter
.param vthn= 0.62986       $ 32
.param vthp= -0.58887

.alter
.param vthn= 0.60774       $ 33
.param vthp= -0.58190

.alter
.param vthn= 0.60708       $ 34
.param vthp= -0.58698

.alter
.param vthn= 0.60902       $ 35
.param vthp= -0.58253

.alter
.param vthn= 0.61764       $ 36
.param vthp= -0.58014

.alter
.param vthn= 0.62603       $ 37
.param vthp= -0.58603

.alter
.param vthn= 0.62186       $ 38
.param vthp= -0.58868

.alter
.param vthn= 0.65379       $ 39
.param vthp= -0.58286

.alter
.param vthn= 0.62642       $ 40
.param vthp= -0.58076

.alter
.param vthn= 0.61739       $ 41
.param vthp= -0.58986

.alter
.param vthn= 0.64081       $ 42
.param vthp= -0.59678

.alter
.param vthn= 0.64790       $ 43
.param vthp= -0.57880

.alter
.param vthn= 0.59108       $ 44
.param vthp= -0.58069

.alter
.param vthn= 0.64809       $ 45
.param vthp= -0.58529

.alter
.param vthn= 0.62953       $ 46
.param vthp= -0.59274

.alter
.param vthn= 0.61809       $ 47
.param vthp= -0.59332

.alter
.param vthn= 0.59076       $ 48
.param vthp= -0.57704

.alter
.param vthn= 0.64211       $ 49
.param vthp= -0.58251

.alter
.param vthn= 0.62484       $ 50
.param vthp= -0.59733

.alter
.param vthn= 0.63014       $ 51
.param vthp= -0.58510

.alter
.param vthn= 0.64129       $ 52
.param vthp= -0.58196

.alter
.param vthn= 0.62883       $ 53
.param vthp= -0.58259

.alter
.param vthn= 0.62069       $ 54
.param vthp= -0.58230

.alter
.param vthn= 0.62958       $ 55
.param vthp= -0.59378

.alter
.param vthn= 0.60128       $ 56
.param vthp= -0.59753

.alter
.param vthn= 0.61449       $ 57
.param vthp= -0.59670

.alter
.param vthn= 0.61956       $ 58
.param vthp= -0.59308

.alter
.param vthn= 0.59571       $ 59
.param vthp= -0.58125

.alter
.param vthn= 0.60228       $ 60
.param vthp= -0.58459

.alter
.param vthn= 0.63102       $ 61
.param vthp= -0.59853

.alter
.param vthn= 0.59492       $ 62
.param vthp= -0.58816

.alter
.param vthn= 0.62645       $ 63
.param vthp= -0.58387

.alter
.param vthn= 0.63511       $ 64
.param vthp= -0.58277

.alter
.param vthn= 0.60152       $ 65
.param vthp= -0.58269

.alter
.param vthn= 0.61376       $ 66
.param vthp= -0.60059

.alter
.param vthn= 0.57836       $ 67
.param vthp= -0.58472

.alter
.param vthn= 0.62034       $ 68
.param vthp= -0.59338

.alter
.param vthn= 0.61098       $ 69
.param vthp= -0.58994

.alter
.param vthn= 0.63613       $ 70
.param vthp= -0.59164

.alter
.param vthn= 0.63319       $ 71
.param vthp= -0.59628

.alter
.param vthn= 0.60503       $ 72
.param vthp= -0.58140

.alter
.param vthn= 0.61119       $ 73
.param vthp= -0.59472

.alter
.param vthn= 0.61104       $ 74
.param vthp= -0.59218

.alter
.param vthn= 0.63080       $ 75
.param vthp= -0.59136

.alter
.param vthn= 0.63933       $ 76
.param vthp= -0.59039

.alter
.param vthn= 0.63767       $ 77
.param vthp= -0.58787

.alter
.param vthn= 0.62940       $ 78
.param vthp= -0.58762

.alter
.param vthn= 0.65465       $ 79
.param vthp= -0.59509

.alter
.param vthn= 0.61511       $ 80
.param vthp= -0.58290

.alter
.param vthn= 0.62291       $ 81
.param vthp= -0.58614

.alter
.param vthn= 0.59652       $ 82
.param vthp= -0.58918

.alter
.param vthn= 0.63930       $ 83
.param vthp= -0.58718

.alter
.param vthn= 0.62021       $ 84
.param vthp= -0.57448

.alter
.param vthn= 0.64602       $ 85
.param vthp= -0.58224

.alter
.param vthn= 0.64112       $ 86
.param vthp= -0.59173

.alter
.param vthn= 0.61579       $ 87
.param vthp= -0.59588

.alter
.param vthn= 0.61848       $ 88
.param vthp= -0.58369

.alter
.param vthn= 0.64815       $ 89
.param vthp= -0.59848

.alter
.param vthn= 0.61496       $ 90
.param vthp= -0.59292

.alter
.param vthn= 0.62514       $ 91
.param vthp= -0.59062

.alter
.param vthn= 0.63037       $ 92
.param vthp= -0.58123

.alter
.param vthn= 0.59395       $ 93
.param vthp= -0.58119

.alter
.param vthn= 0.61817       $ 94
.param vthp= -0.58740

.alter
.param vthn= 0.66122       $ 95
.param vthp= -0.58786

.alter
.param vthn= 0.62758       $ 96
.param vthp= -0.58252

.alter
.param vthn= 0.62572       $ 97
.param vthp= -0.59469

.alter
.param vthn= 0.63697       $ 98
.param vthp= -0.59155

.alter
.param vthn= 0.61895       $ 99
.param vthp= -0.58905

.alter
.param vthn= 0.62132       $ 100
.param vthp= -0.59781

.alter
.param vthn= 0.60395       $ 101
.param vthp= -0.57073

.alter
.param vthn= 0.60471       $ 102
.param vthp= -0.57945

.alter
.param vthn= 0.64133       $ 103
.param vthp= -0.59229

.alter
.param vthn= 0.62582       $ 104
.param vthp= -0.58551

.alter
.param vthn= 0.58377       $ 105
.param vthp= -0.59303

.alter
.param vthn= 0.62822       $ 106
.param vthp= -0.58667

.alter
.param vthn= 0.61703       $ 107
.param vthp= -0.58542

.alter
.param vthn= 0.61757       $ 108
.param vthp= -0.58459

.alter
.param vthn= 0.60322       $ 109
.param vthp= -0.60502

.alter
.param vthn= 0.62852       $ 110
.param vthp= -0.58766

.alter
.param vthn= 0.61340       $ 111
.param vthp= -0.59233

.alter
.param vthn= 0.63981       $ 112
.param vthp= -0.59189

.alter
.param vthn= 0.62918       $ 113
.param vthp= -0.58384

.alter
.param vthn= 0.61860       $ 114
.param vthp= -0.59031

.alter
.param vthn= 0.62690       $ 115
.param vthp= -0.58905

.alter
.param vthn= 0.62084       $ 116
.param vthp= -0.59030

.alter
.param vthn= 0.61260       $ 117
.param vthp= -0.59265

.alter
.param vthn= 0.62703       $ 118
.param vthp= -0.59456

.alter
.param vthn= 0.59851       $ 119
.param vthp= -0.59101

.alter
.param vthn= 0.65160       $ 120
.param vthp= -0.58650

.alter
.param vthn= 0.61660       $ 121
.param vthp= -0.58320

.alter
.param vthn= 0.61083       $ 122
.param vthp= -0.60205

.alter
.param vthn= 0.63047       $ 123
.param vthp= -0.59081

.alter
.param vthn= 0.62514       $ 124
.param vthp= -0.57640

.alter
.param vthn= 0.59810       $ 125
.param vthp= -0.58159

.alter
.param vthn= 0.64091       $ 126
.param vthp= -0.59919

.alter
.param vthn= 0.62937       $ 127
.param vthp= -0.58858

.alter
.param vthn= 0.61037       $ 128
.param vthp= -0.57357

.alter
.param vthn= 0.63756       $ 129
.param vthp= -0.58636

.alter
.param vthn= 0.61305       $ 130
.param vthp= -0.58497

.alter
.param vthn= 0.60901       $ 131
.param vthp= -0.59338

.alter
.param vthn= 0.63563       $ 132
.param vthp= -0.57018

.alter
.param vthn= 0.57487       $ 133
.param vthp= -0.58765

.alter
.param vthn= 0.61239       $ 134
.param vthp= -0.58286

.alter
.param vthn= 0.61524       $ 135
.param vthp= -0.58290

.alter
.param vthn= 0.64112       $ 136
.param vthp= -0.58484

.alter
.param vthn= 0.63886       $ 137
.param vthp= -0.58113

.alter
.param vthn= 0.63267       $ 138
.param vthp= -0.58766

.alter
.param vthn= 0.65203       $ 139
.param vthp= -0.58695

.alter
.param vthn= 0.61589       $ 140
.param vthp= -0.57960

.alter
.param vthn= 0.64093       $ 141
.param vthp= -0.57447

.alter
.param vthn= 0.59658       $ 142
.param vthp= -0.59947

.alter
.param vthn= 0.63617       $ 143
.param vthp= -0.58290

.alter
.param vthn= 0.61301       $ 144
.param vthp= -0.59262

.alter
.param vthn= 0.61712       $ 145
.param vthp= -0.58373

.alter
.param vthn= 0.59626       $ 146
.param vthp= -0.57899

.alter
.param vthn= 0.60862       $ 147
.param vthp= -0.58390

.alter
.param vthn= 0.64373       $ 148
.param vthp= -0.58738

.alter
.param vthn= 0.63482       $ 149
.param vthp= -0.59474

.alter
.param vthn= 0.61298       $ 150
.param vthp= -0.58523

.alter
.param vthn= 0.60990       $ 151
.param vthp= -0.59613

.alter
.param vthn= 0.60449       $ 152
.param vthp= -0.58884

.alter
.param vthn= 0.63354       $ 153
.param vthp= -0.58004

.alter
.param vthn= 0.63564       $ 154
.param vthp= -0.57833

.alter
.param vthn= 0.62508       $ 155
.param vthp= -0.57660

.alter
.param vthn= 0.62004       $ 156
.param vthp= -0.58065

.alter
.param vthn= 0.62446       $ 157
.param vthp= -0.58612

.alter
.param vthn= 0.61946       $ 158
.param vthp= -0.60152

.alter
.param vthn= 0.62911       $ 159
.param vthp= -0.57564

.alter
.param vthn= 0.61971       $ 160
.param vthp= -0.59470

.alter
.param vthn= 0.61327       $ 161
.param vthp= -0.58673

.alter
.param vthn= 0.58777       $ 162
.param vthp= -0.58855

.alter
.param vthn= 0.62240       $ 163
.param vthp= -0.59746

.alter
.param vthn= 0.62672       $ 164
.param vthp= -0.58828

.alter
.param vthn= 0.60392       $ 165
.param vthp= -0.58114

.alter
.param vthn= 0.64218       $ 166
.param vthp= -0.58503

.alter
.param vthn= 0.63693       $ 167
.param vthp= -0.58354

.alter
.param vthn= 0.60349       $ 168
.param vthp= -0.59233

.alter
.param vthn= 0.61005       $ 169
.param vthp= -0.58015

.alter
.param vthn= 0.61529       $ 170
.param vthp= -0.58951

.alter
.param vthn= 0.63119       $ 171
.param vthp= -0.58835

.alter
.param vthn= 0.64348       $ 172
.param vthp= -0.58596

.alter
.param vthn= 0.64717       $ 173
.param vthp= -0.59090

.alter
.param vthn= 0.60640       $ 174
.param vthp= -0.57999

.alter
.param vthn= 0.60700       $ 175
.param vthp= -0.58768

.alter
.param vthn= 0.59885       $ 176
.param vthp= -0.58622

.alter
.param vthn= 0.59894       $ 177
.param vthp= -0.59704

.alter
.param vthn= 0.62606       $ 178
.param vthp= -0.58218

.alter
.param vthn= 0.63827       $ 179
.param vthp= -0.59308

.alter
.param vthn= 0.62583       $ 180
.param vthp= -0.60288

.alter
.param vthn= 0.60752       $ 181
.param vthp= -0.57861

.alter
.param vthn= 0.62458       $ 182
.param vthp= -0.59388

.alter
.param vthn= 0.62583       $ 183
.param vthp= -0.58227

.alter
.param vthn= 0.61669       $ 184
.param vthp= -0.58396

.alter
.param vthn= 0.62814       $ 185
.param vthp= -0.58210

.alter
.param vthn= 0.62805       $ 186
.param vthp= -0.58613

.alter
.param vthn= 0.60427       $ 187
.param vthp= -0.59370

.alter
.param vthn= 0.61481       $ 188
.param vthp= -0.58577

.alter
.param vthn= 0.57794       $ 189
.param vthp= -0.59095

.alter
.param vthn= 0.61984       $ 190
.param vthp= -0.59445

.alter
.param vthn= 0.60357       $ 191
.param vthp= -0.59090

.alter
.param vthn= 0.61334       $ 192
.param vthp= -0.58263

.alter
.param vthn= 0.62677       $ 193
.param vthp= -0.58378

.alter
.param vthn= 0.62470       $ 194
.param vthp= -0.58267

.alter
.param vthn= 0.63176       $ 195
.param vthp= -0.59426

.alter
.param vthn= 0.64064       $ 196
.param vthp= -0.58427

.alter
.param vthn= 0.59591       $ 197
.param vthp= -0.59499

.alter
.param vthn= 0.61234       $ 198
.param vthp= -0.59010

.alter
.param vthn= 0.62079       $ 199
.param vthp= -0.59721

.alter
.param vthn= 0.63219       $ 200
.param vthp= -0.58712

.alter
.param vthn= 0.65106       $ 201
.param vthp= -0.60241

.alter
.param vthn= 0.62579       $ 202
.param vthp= -0.59009

.alter
.param vthn= 0.66179       $ 203
.param vthp= -0.60238

.alter
.param vthn= 0.65354       $ 204
.param vthp= -0.58841

.alter
.param vthn= 0.62789       $ 205
.param vthp= -0.59109

.alter
.param vthn= 0.63777       $ 206
.param vthp= -0.61117

.alter
.param vthn= 0.65250       $ 207
.param vthp= -0.60286

.alter
.param vthn= 0.66636       $ 208
.param vthp= -0.59371

.alter
.param vthn= 0.64421       $ 209
.param vthp= -0.59207

.alter
.param vthn= 0.65686       $ 210
.param vthp= -0.59699

.alter
.param vthn= 0.67752       $ 211
.param vthp= -0.59648

.alter
.param vthn= 0.63791       $ 212
.param vthp= -0.60111

.alter
.param vthn= 0.63967       $ 213
.param vthp= -0.58304

.alter
.param vthn= 0.62907       $ 214
.param vthp= -0.59199

.alter
.param vthn= 0.63117       $ 215
.param vthp= -0.59269

.alter
.param vthn= 0.67056       $ 216
.param vthp= -0.59664

.alter
.param vthn= 0.66936       $ 217
.param vthp= -0.60345

.alter
.param vthn= 0.66183       $ 218
.param vthp= -0.60757

.alter
.param vthn= 0.65403       $ 219
.param vthp= -0.59933

.alter
.param vthn= 0.65525       $ 220
.param vthp= -0.59448

.alter
.param vthn= 0.62989       $ 221
.param vthp= -0.58812

.alter
.param vthn= 0.63681       $ 222
.param vthp= -0.59040

.alter
.param vthn= 0.64664       $ 223
.param vthp= -0.59658

.alter
.param vthn= 0.65358       $ 224
.param vthp= -0.59332

.alter
.param vthn= 0.62306       $ 225
.param vthp= -0.59660

.alter
.param vthn= 0.65191       $ 226
.param vthp= -0.58168

.alter
.param vthn= 0.65331       $ 227
.param vthp= -0.59545

.alter
.param vthn= 0.64134       $ 228
.param vthp= -0.59334

.alter
.param vthn= 0.63851       $ 229
.param vthp= -0.58670

.alter
.param vthn= 0.64432       $ 230
.param vthp= -0.59722

.alter
.param vthn= 0.64915       $ 231
.param vthp= -0.59528

.alter
.param vthn= 0.65328       $ 232
.param vthp= -0.59579

.alter
.param vthn= 0.63116       $ 233
.param vthp= -0.58882

.alter
.param vthn= 0.63050       $ 234
.param vthp= -0.59390

.alter
.param vthn= 0.63244       $ 235
.param vthp= -0.58945

.alter
.param vthn= 0.64106       $ 236
.param vthp= -0.58706

.alter
.param vthn= 0.64945       $ 237
.param vthp= -0.59295

.alter
.param vthn= 0.64528       $ 238
.param vthp= -0.59560

.alter
.param vthn= 0.67721       $ 239
.param vthp= -0.58978

.alter
.param vthn= 0.64984       $ 240
.param vthp= -0.58768

.alter
.param vthn= 0.64081       $ 241
.param vthp= -0.59678

.alter
.param vthn= 0.66423       $ 242
.param vthp= -0.60370

.alter
.param vthn= 0.67132       $ 243
.param vthp= -0.58572

.alter
.param vthn= 0.61450       $ 244
.param vthp= -0.58761

.alter
.param vthn= 0.67151       $ 245
.param vthp= -0.59221

.alter
.param vthn= 0.65295       $ 246
.param vthp= -0.59966

.alter
.param vthn= 0.64151       $ 247
.param vthp= -0.60024

.alter
.param vthn= 0.61418       $ 248
.param vthp= -0.58396

.alter
.param vthn= 0.66553       $ 249
.param vthp= -0.58943

.alter
.param vthn= 0.64826       $ 250
.param vthp= -0.60425

.alter
.param vthn= 0.65356       $ 251
.param vthp= -0.59202

.alter
.param vthn= 0.66471       $ 252
.param vthp= -0.58888

.alter
.param vthn= 0.65225       $ 253
.param vthp= -0.58951

.alter
.param vthn= 0.64411       $ 254
.param vthp= -0.58922

.alter
.param vthn= 0.65300       $ 255
.param vthp= -0.60070

.alter
.param vthn= 0.62470       $ 256
.param vthp= -0.60445

.alter
.param vthn= 0.63791       $ 257
.param vthp= -0.60362

.alter